<?xml version="1.0" encoding="UTF-8"?>

<!-- generated on 2025-08-13 14:45:33 by Eclipse SUMO netedit Version 1.23.1
<neteditConfiguration xmlns:xsi="http://www.w3.org/2001/XMLSchema-instance" xsi:noNamespaceSchemaLocation="http://sumo.dlr.de/xsd/neteditConfiguration.xsd">

    <input>
        <sumocfg-file value="C:\Users\Asus\Desktop\UCL Dissertation\SUMO\siriFort.sumocfg"/>
        <route-files value="C:\Users\Asus\Desktop\UCL Dissertation\SUMO\siriFort.rou.xml"/>
        <sumo-net-file value="C:\Users\Asus\Desktop\UCL Dissertation\SUMO\siriFort.net.xml"/>
    </input>

    <output>
        <output-file value="C:\Users\Asus\Desktop\UCL Dissertation\SUMO\siriFort.net.xml"/>
    </output>

    <processing>
        <geometry.min-radius.fix.railways value="false"/>
        <geometry.avoid-overlap value="false"/>
        <geometry.max-grade.fix value="false"/>
        <offset.disable-normalization value="true"/>
        <lefthand value="1"/>
    </processing>

    <junctions>
        <no-turnarounds value="true"/>
        <junctions.corner-detail value="5"/>
        <junctions.limit-turn-speed value="5.50"/>
        <rectangular-lane-cut value="0"/>
    </junctions>

    <pedestrian>
        <walkingareas value="0"/>
    </pedestrian>

</neteditConfiguration>
-->

<net version="1.20" junctionCornerDetail="5" lefthand="true" limitTurnSpeed="5.50" avoidOverlap="0" xmlns:xsi="http://www.w3.org/2001/XMLSchema-instance" xsi:noNamespaceSchemaLocation="http://sumo.dlr.de/xsd/net_file.xsd">

    <location netOffset="0.00,0.00" convBoundary="-374.74,-263.95,265.90,286.87" origBoundary="-10000000000.00,-10000000000.00,10000000000.00,10000000000.00" projParameter="!"/>

    <edge id=":J10_0" function="internal">
        <lane id=":J10_0_0" index="0" speed="13.89" length="16.96" shape="13.66,1.76 18.02,-0.88 20.60,-3.32 23.09,-5.90 27.21,-8.98"/>
        <lane id=":J10_0_1" index="1" speed="13.89" length="16.96" shape="12.26,-1.12 16.79,-3.28 19.89,-4.76 22.92,-6.38 27.21,-8.98"/>
        <lane id=":J10_0_2" index="2" speed="13.89" length="16.96" shape="10.85,-3.99 15.30,-6.11 18.34,-7.56 21.31,-9.15 25.52,-11.69"/>
    </edge>
    <edge id=":J13_0" function="internal">
        <lane id=":J13_0_0" index="0" speed="13.89" length="16.37" shape="62.21,-47.11 48.05,-39.24"/>
        <lane id=":J13_0_1" index="1" speed="13.89" length="16.37" shape="63.94,-44.42 49.68,-36.49"/>
        <lane id=":J13_0_2" index="2" speed="13.89" length="16.37" shape="63.94,-44.42 60.03,-41.47 57.68,-39.00 55.31,-36.57 51.32,-33.74"/>
    </edge>
    <edge id=":J16_0" function="internal">
        <lane id=":J16_0_0" index="0" disallow="bus" speed="13.89" length="45.57" shape="17.35,141.96 14.51,132.14 13.17,122.49 11.33,111.46 7.03,97.49"/>
        <lane id=":J16_0_1" index="1" disallow="bus" speed="13.89" length="45.57" shape="14.38,143.17 11.54,133.35 10.20,123.69 8.36,112.63 4.05,98.64"/>
        <lane id=":J16_0_2" index="2" disallow="bus" speed="13.89" length="45.57" shape="14.38,143.17 11.07,133.51 8.68,124.21 5.82,113.54 1.07,99.80"/>
        <lane id=":J16_0_3" index="3" allow="bus" speed="13.89" length="45.57" shape="11.42,144.38 -4.90,102.12"/>
    </edge>
    <edge id=":J4_0" function="internal">
        <lane id=":J4_0_0" index="0" speed="13.89" length="48.03" shape="-64.09,-137.46 -65.78,-127.05 -68.04,-116.88 -69.91,-104.96 -70.41,-89.29"/>
        <lane id=":J4_0_1" index="1" speed="13.89" length="48.03" shape="-60.91,-137.16 -62.59,-126.78 -64.85,-116.70 -66.71,-104.91 -67.22,-89.38"/>
        <lane id=":J4_0_2" index="2" speed="13.89" length="48.03" shape="-60.91,-137.16 -62.09,-126.77 -63.24,-116.67 -64.01,-104.90 -64.02,-89.47"/>
        <lane id=":J4_0_3" index="3" allow="bus" speed="13.89" length="48.03" shape="-57.72,-136.85 -58.40,-126.49 -58.45,-116.50 -58.11,-104.88 -57.62,-89.65"/>
    </edge>
    <edge id=":J7_0" function="internal">
        <lane id=":J7_0_0" index="0" speed="13.89" length="15.26" shape="-129.91,39.46 -125.42,38.71 -122.26,38.72 -119.11,38.69 -114.65,37.82"/>
        <lane id=":J7_0_1" index="1" speed="13.89" length="15.26" shape="-130.69,36.36 -126.23,35.61 -123.08,35.62 -119.95,35.60 -115.52,34.74"/>
        <lane id=":J7_0_2" index="2" speed="13.89" length="15.26" shape="-130.69,36.36 -116.38,31.66"/>
    </edge>
    <edge id=":clusterJ42_J43_J44_J45_#4more_0" function="internal">
        <lane id=":clusterJ42_J43_J44_J45_#4more_0_0" index="0" disallow="bus" speed="8.34" length="18.38" shape="-22.88,-1.68 -27.48,-0.57 -31.07,-1.66 -33.67,-4.94 -35.27,-10.42"/>
    </edge>
    <edge id=":clusterJ42_J43_J44_J45_#4more_1" function="internal">
        <lane id=":clusterJ42_J43_J44_J45_#4more_1_0" index="0" speed="13.89" length="54.40" shape="-22.88,-1.68 -35.45,2.65 -50.39,6.56 -64.55,9.90 -74.76,12.49"/>
        <lane id=":clusterJ42_J43_J44_J45_#4more_1_1" index="1" speed="13.89" length="54.40" shape="-21.48,1.20 -34.12,5.55 -49.23,9.53 -63.55,12.94 -73.84,15.56"/>
        <lane id=":clusterJ42_J43_J44_J45_#4more_1_2" index="2" speed="13.89" length="54.40" shape="-20.07,4.08 -32.93,7.98 -48.53,10.97 -63.33,13.39 -73.84,15.56"/>
    </edge>
    <edge id=":clusterJ42_J43_J44_J45_#4more_4" function="internal">
        <lane id=":clusterJ42_J43_J44_J45_#4more_4_0" index="0" disallow="bus" speed="13.89" length="50.99" shape="-20.07,4.08 -34.38,12.01 -43.18,21.02 -46.47,31.13 -44.26,42.32"/>
    </edge>
    <edge id=":clusterJ42_J43_J44_J45_#4more_5" function="internal">
        <lane id=":clusterJ42_J43_J44_J45_#4more_5_0" index="0" disallow="bus" speed="9.49" length="19.01" shape="-19.40,31.81 -20.78,26.40 -20.41,21.88 -18.32,18.25 -14.49,15.51"/>
    </edge>
    <edge id=":clusterJ42_J43_J44_J45_#4more_6" function="internal">
        <lane id=":clusterJ42_J43_J44_J45_#4more_6_0" index="0" disallow="bus" speed="13.89" length="45.56" shape="-19.40,31.81 -24.94,18.40 -29.43,8.34 -32.88,-0.54 -35.27,-10.42"/>
        <lane id=":clusterJ42_J43_J44_J45_#4more_6_1" index="1" disallow="bus" speed="13.89" length="45.56" shape="-22.37,33.01 -27.98,19.36 -32.54,9.09 -36.03,0.05 -38.43,-9.89"/>
    </edge>
    <edge id=":clusterJ42_J43_J44_J45_#4more_8" function="internal">
        <lane id=":clusterJ42_J43_J44_J45_#4more_8_0" index="0" disallow="bus" speed="13.89" length="53.15" shape="-25.30,34.30 -32.93,27.78 -47.48,21.10 -63.08,16.33 -73.84,15.56"/>
    </edge>
    <edge id=":clusterJ42_J43_J44_J45_#4more_9" function="internal">
        <lane id=":clusterJ42_J43_J44_J45_#4more_9_0" index="0" allow="bus" speed="13.89" length="47.45" shape="-31.20,36.79 -36.04,22.34 -38.63,10.98 -40.11,0.98 -41.58,-9.36"/>
    </edge>
    <edge id=":clusterJ42_J43_J44_J45_#4more_10" function="internal">
        <lane id=":clusterJ42_J43_J44_J45_#4more_10_0" index="0" disallow="bus" speed="12.49" length="32.48" shape="-70.79,25.71 -63.93,25.34 -57.72,28.19 -52.14,34.26 -47.21,43.57"/>
    </edge>
    <edge id=":clusterJ42_J43_J44_J45_#4more_11" function="internal">
        <lane id=":clusterJ42_J43_J44_J45_#4more_11_0" index="0" speed="13.89" length="56.84" shape="-70.79,25.71 -57.79,23.35 -42.27,21.58 -26.94,19.32 -14.49,15.51"/>
        <lane id=":clusterJ42_J43_J44_J45_#4more_11_1" index="1" speed="13.89" length="56.84" shape="-71.71,22.65 -58.79,20.32 -43.44,18.61 -28.27,16.41 -15.89,12.63"/>
        <lane id=":clusterJ42_J43_J44_J45_#4more_11_2" index="2" speed="13.89" length="56.84" shape="-72.63,19.58 -59.78,17.28 -44.60,15.64 -29.60,13.51 -17.30,9.76"/>
    </edge>
    <edge id=":clusterJ42_J43_J44_J45_#4more_14" function="internal">
        <lane id=":clusterJ42_J43_J44_J45_#4more_14_0" index="0" disallow="bus" speed="13.89" length="49.16" shape="-72.63,19.58 -56.47,13.85 -45.38,7.03 -39.37,-0.88 -38.43,-9.89"/>
    </edge>
    <edge id=":clusterJ42_J43_J44_J45_#4more_15" function="internal">
        <lane id=":clusterJ42_J43_J44_J45_#4more_15_0" index="0" speed="10.59" length="20.79" shape="-66.89,-5.14 -67.13,1.61 -68.53,6.80 -71.07,10.43 -74.76,12.49"/>
    </edge>
    <edge id=":clusterJ42_J43_J44_J45_#4more_16" function="internal">
        <lane id=":clusterJ42_J43_J44_J45_#4more_16_0" index="0" disallow="bus" speed="13.89" length="52.78" shape="-66.89,-5.14 -64.17,11.07 -58.83,23.40 -52.59,33.64 -47.21,43.57"/>
        <lane id=":clusterJ42_J43_J44_J45_#4more_16_1" index="1" disallow="bus" speed="13.89" length="52.78" shape="-63.71,-5.67 -61.03,10.42 -55.76,22.51 -49.61,32.51 -44.26,42.32"/>
    </edge>
    <edge id=":clusterJ42_J43_J44_J45_#4more_18" function="internal">
        <lane id=":clusterJ42_J43_J44_J45_#4more_18_0" index="0" speed="12.58" length="48.12" shape="-60.53,-6.20 -54.73,0.59 -41.76,6.57 -27.37,10.16 -17.30,9.76"/>
    </edge>
    <edge id=":clusterJ42_J43_J44_J45_#4more_19" function="internal">
        <lane id=":clusterJ42_J43_J44_J45_#4more_19_0" index="0" allow="bus" speed="13.89" length="50.41" shape="-54.17,-7.26 -52.52,8.89 -49.52,21.09 -45.63,31.21 -41.31,41.07"/>
    </edge>

    <edge id="-E8" from="J28" to="J16" priority="-1" shape="71.59,286.11 18.42,165.77 9.94,144.98">
        <lane id="-E8_0" index="0" disallow="bus" speed="13.89" length="153.88" shape="78.91,282.88 25.78,162.64 17.35,141.96"/>
        <lane id="-E8_1" index="1" disallow="bus" speed="13.89" length="153.88" shape="75.98,284.17 22.84,163.89 14.38,143.17"/>
        <lane id="-E8_2" index="2" allow="bus" speed="13.89" length="153.88" shape="73.05,285.46 19.89,165.14 11.42,144.38"/>
    </edge>
    <edge id="-E8.75" from="J16" to="clusterJ42_J43_J44_J45_#4more" priority="-1" shape="-6.39,102.70 -11.11,90.55 -16.54,77.67 -25.15,57.08 -32.83,37.01">
        <lane id="-E8.75_0" index="0" disallow="bus" speed="13.89" length="70.63" shape="7.03,97.49 2.24,85.14 -3.26,72.10 -11.78,51.73 -19.40,31.81"/>
        <lane id="-E8.75_1" index="1" disallow="bus" speed="13.89" length="70.63" shape="4.05,98.64 -0.73,86.35 -6.21,73.34 -14.75,52.92 -22.37,33.01"/>
        <lane id="-E8.75_2" index="2" disallow="bus" speed="13.89" length="70.63" shape="1.07,99.80 -3.69,87.55 -9.16,74.58 -17.72,54.11 -25.30,34.30"/>
        <lane id="-E8.75_3" index="3" disallow="all" speed="13.89" length="70.63" shape="-1.92,100.96 -6.66,88.75 -12.11,75.81 -20.69,55.30 -28.25,35.55"/>
        <lane id="-E8.75_4" index="4" allow="bus" speed="13.89" length="70.63" shape="-4.90,102.12 -9.63,89.95 -15.06,77.05 -23.66,56.49 -31.20,36.79"/>
    </edge>
    <edge id="E0" from="clusterJ42_J43_J44_J45_#4more" to="J6" priority="-1" shape="-43.16,-9.10 -44.89,-19.46 -46.21,-32.88 -47.27,-49.40 -48.61,-69.85 -49.69,-85.76 -51.49,-103.51 -53.55,-120.46 -53.95,-134.68 -52.73,-155.35 -51.33,-176.05 -44.40,-263.95">
        <lane id="E0_0" index="0" disallow="bus" speed="13.89" length="254.58" shape="-35.27,-10.42 -36.95,-20.51 -38.24,-33.53 -39.29,-49.92 -40.63,-70.38 -41.72,-86.43 -43.54,-104.40 -45.56,-121.06 -45.94,-134.56 -44.75,-154.84 -43.35,-175.47 -36.42,-263.32"/>
        <lane id="E0_1" index="1" disallow="bus" speed="13.89" length="254.58" shape="-38.43,-9.89 -40.13,-20.09 -41.43,-33.27 -42.48,-49.71 -43.82,-70.17 -44.91,-86.16 -46.72,-104.04 -48.76,-120.82 -49.15,-134.61 -47.94,-155.05 -46.54,-175.70 -39.61,-263.57"/>
        <lane id="E0_2" index="2" allow="bus" speed="13.89" length="254.58" shape="-41.58,-9.36 -43.30,-19.67 -44.62,-33.01 -45.67,-49.50 -47.01,-69.96 -48.10,-85.89 -49.90,-103.69 -51.95,-120.58 -52.35,-134.66 -51.13,-155.25 -49.73,-175.93 -42.80,-263.82"/>
    </edge>
    <edge id="E1" from="clusterJ42_J43_J44_J45_#4more" to="J9" priority="-1" shape="-73.38,17.09 -124.51,32.46 -374.32,95.86">
        <lane id="E1_0" index="0" speed="13.89" length="310.98" shape="-74.76,12.49 -125.79,27.83 -375.50,91.21"/>
        <lane id="E1_1" index="1" speed="13.89" length="310.98" shape="-73.84,15.56 -124.94,30.92 -374.71,94.31"/>
    </edge>
    <edge id="E10" from="clusterJ42_J43_J44_J45_#4more" to="J10" priority="-1" shape="-18.00,8.32 10.15,-5.43">
        <lane id="E10_0" index="0" speed="13.89" length="31.33" shape="-14.49,15.51 13.66,1.76"/>
        <lane id="E10_1" index="1" speed="13.89" length="31.33" shape="-15.89,12.63 12.26,-1.12"/>
        <lane id="E10_2" index="2" speed="13.89" length="31.33" shape="-17.30,9.76 10.85,-3.99"/>
    </edge>
    <edge id="E10.44" from="J10" to="J33" priority="-1" shape="24.67,-13.05 32.98,-18.24 43.14,-25.02 66.10,-40.34 82.43,-51.38 99.24,-62.77 104.26,-65.98 123.68,-74.29 140.91,-77.33 265.46,-88.23">
        <lane id="E10.44_0" index="0" speed="13.89" length="257.72" shape="27.21,-8.98 35.58,-14.21 45.80,-21.03 68.78,-36.36 85.12,-47.40 101.88,-58.76 106.51,-61.72 125.06,-69.66 141.54,-72.57 265.88,-83.45"/>
        <lane id="E10.44_1" index="1" speed="13.89" length="257.72" shape="25.52,-11.69 33.85,-16.90 44.03,-23.69 66.99,-39.01 83.33,-50.05 100.12,-61.43 105.01,-64.56 124.14,-72.75 141.12,-75.74 265.60,-86.64"/>
    </edge>
    <edge id="E2" from="J11" to="J13" priority="-1" shape="265.90,-88.45 141.45,-78.26 125.56,-75.91 110.95,-71.19 98.57,-65.31 73.44,-48.60 64.80,-43.07">
        <lane id="E2_0" index="0" speed="13.89" length="211.99" shape="265.51,-93.23 140.90,-83.03 124.46,-80.60 109.17,-75.66 96.20,-69.50 70.82,-52.62 62.21,-47.11"/>
        <lane id="E2_1" index="1" speed="13.89" length="211.99" shape="265.77,-90.04 141.27,-79.85 125.19,-77.47 110.36,-72.68 97.78,-66.71 72.57,-49.94 63.94,-44.42"/>
    </edge>
    <edge id="E2.109" from="J13" to="clusterJ42_J43_J44_J45_#4more" priority="-1" shape="52.14,-32.37 41.13,-25.81 28.60,-18.05 14.21,-10.03 -1.71,-2.12 -15.23,3.73">
        <lane id="E2.109_0" index="0" speed="13.89" length="80.65" shape="48.05,-39.24 36.98,-32.65 24.54,-24.95 10.48,-17.11 -5.08,-9.38 -22.88,-1.68"/>
        <lane id="E2.109_1" index="1" speed="13.89" length="80.65" shape="49.68,-36.49 38.64,-29.91 26.17,-22.19 11.97,-14.28 -3.73,-6.47 -21.48,1.20"/>
        <lane id="E2.109_2" index="2" speed="13.89" length="80.65" shape="51.32,-33.74 40.30,-27.18 27.79,-19.43 13.46,-11.45 -2.38,-3.57 -20.07,4.08"/>
    </edge>
    <edge id="E3" from="clusterJ42_J43_J44_J45_#4more" to="J18" priority="-1" shape="-39.84,40.45 -37.45,46.10 -28.22,68.53 -20.59,86.51 -15.02,100.29 -9.39,112.74 -3.87,123.08 4.18,136.40 11.24,152.16 20.13,174.04 71.85,286.73">
        <lane id="E3_0" index="0" disallow="bus" speed="13.89" length="271.20" shape="-47.21,43.57 -44.83,49.18 -35.60,71.61 -27.98,89.57 -22.38,103.44 -16.57,116.28 -10.83,127.04 -2.92,140.12 3.88,155.30 12.79,177.22 64.77,290.47"/>
        <lane id="E3_1" index="1" disallow="bus" speed="13.89" length="271.20" shape="-44.26,42.32 -41.88,47.95 -32.65,70.38 -25.02,88.35 -19.43,102.18 -13.70,114.86 -8.04,125.45 -0.08,138.63 6.82,154.05 15.72,175.95 67.67,289.14"/>
        <lane id="E3_2" index="2" allow="bus" speed="13.89" length="271.20" shape="-41.31,41.07 -38.93,46.72 -29.70,69.15 -22.07,87.12 -16.49,100.92 -10.83,113.45 -5.26,123.87 2.76,137.14 9.77,152.79 18.66,174.68 70.58,287.80"/>
    </edge>
    <edge id="E7" from="J25" to="J4" priority="-1" shape="-45.00,-263.85 -54.61,-152.60 -56.13,-136.70">
        <lane id="E7_0" index="0" speed="13.89" length="127.59" shape="-52.97,-264.54 -62.58,-153.32 -64.09,-137.46"/>
        <lane id="E7_1" index="1" speed="13.89" length="127.59" shape="-49.78,-264.26 -59.39,-153.03 -60.91,-137.16"/>
        <lane id="E7_2" index="2" allow="bus" speed="13.89" length="127.59" shape="-46.59,-263.99 -56.20,-152.74 -57.72,-136.85"/>
    </edge>
    <edge id="E7.95" from="J4" to="clusterJ42_J43_J44_J45_#4more" priority="-1" shape="-56.02,-89.69 -55.05,-54.47 -53.67,-32.16 -52.44,-4.31">
        <lane id="E7.95_0" index="0" speed="13.89" length="83.35" shape="-70.41,-89.29 -69.44,-53.83 -68.05,-31.40 -66.89,-5.14"/>
        <lane id="E7.95_1" index="1" speed="13.89" length="83.35" shape="-67.22,-89.38 -66.24,-53.97 -64.85,-31.57 -63.71,-5.67"/>
        <lane id="E7.95_2" index="2" speed="13.89" length="83.35" shape="-64.02,-89.47 -63.04,-54.11 -61.66,-31.74 -60.53,-6.20"/>
        <lane id="E7.95_3" index="3" disallow="all" speed="13.89" length="83.35" shape="-60.82,-89.56 -59.85,-54.26 -58.46,-31.91 -57.35,-6.73"/>
        <lane id="E7.95_4" index="4" allow="bus" speed="13.89" length="83.35" shape="-57.62,-89.65 -56.65,-54.40 -55.27,-32.08 -54.17,-7.26"/>
    </edge>
    <edge id="E9" from="J29" to="J7" priority="-1" shape="-374.74,96.16 -131.08,34.81">
        <lane id="E9_0" index="0" speed="13.89" length="251.26" shape="-373.57,100.81 -129.91,39.46"/>
        <lane id="E9_1" index="1" speed="13.89" length="251.26" shape="-374.35,97.71 -130.69,36.36"/>
    </edge>
    <edge id="E9.147" from="J7" to="clusterJ42_J43_J44_J45_#4more" priority="-1" shape="-116.81,30.12 -104.85,26.77 -91.84,23.24 -75.99,18.85">
        <lane id="E9.147_0" index="0" speed="13.89" length="45.45" shape="-114.65,37.82 -102.72,34.48 -89.72,30.95 -70.79,25.71"/>
        <lane id="E9.147_1" index="1" speed="13.89" length="45.45" shape="-115.52,34.74 -103.57,31.40 -90.57,27.87 -71.71,22.65"/>
        <lane id="E9.147_2" index="2" speed="13.89" length="45.45" shape="-116.38,31.66 -104.42,28.31 -91.42,24.78 -72.63,19.58"/>
    </edge>

    <tlLogic id="clusterJ42_J43_J44_J45_#4more" type="static" programID="2" offset="0">
        <phase duration="80" state="rrrrrGGGrGrrrrrGGGrG"/>
        <phase duration="3"  state="rrrrryyyrGrrrrryyyrG"/>
        <phase duration="1"  state="rrrrrrrrrGrrrrrrrrrG"/>
        <phase duration="20" state="GrrrrrrrrGGrrrrrrrrG"/>
        <phase duration="3"  state="yrrrrrrrryyrrrrrrrry"/>
        <phase duration="1"  state="rrrrrrrrrrrrrrrrrrrr"/>
        <phase duration="30" state="rrrrrrrrrrGGGGGGrrrr"/>
        <phase duration="3"  state="rrrrrrrrrryyyyyyrrrr"/>
        <phase duration="1"  state="rrrrrrrrrrrrrrrrrrrr"/>
        <phase duration="45" state="rrrrrrrrGrrrrrrrrrGr"/>
        <phase duration="3"  state="rrrrrrrryrrrrrrrrryr"/>
        <phase duration="1"  state="rrrrrrrrrrrrrrrrrrrr"/>
        <phase duration="30" state="GGGGGGrrrrrrrrrrrrrr"/>
        <phase duration="3"  state="yyyyyyrrrrrrrrrrrrrr"/>
        <phase duration="1"  state="rrrrrrrrrrrrrrrrrrrr"/>
    </tlLogic>

    <junction id="J10" type="priority" x="19.03" y="-9.59" incLanes="E10_0 E10_1 E10_2" intLanes=":J10_0_0 :J10_0_1 :J10_0_2" shape="24.67,-13.05 28.06,-7.62 25.02,-5.48 22.96,-3.61 21.38,-1.92 19.75,-0.28 17.59,1.39 14.36,3.20 10.15,-5.43 13.30,-6.94 15.64,-8.04 17.56,-8.96 19.45,-9.94 21.69,-11.23">
        <request index="0" response="010" foes="010" cont="0"/>
        <request index="1" response="000" foes="001" cont="0"/>
        <request index="2" response="000" foes="000" cont="0"/>
    </junction>
    <junction id="J11" type="dead_end" x="265.90" y="-88.45" incLanes="" intLanes="" shape="265.90,-88.45 265.38,-94.83"/>
    <junction id="J13" type="priority" x="55.68" y="-38.79" incLanes="E2_0 E2_1" intLanes=":J13_0_0 :J13_0_1 :J13_0_2" shape="61.35,-48.46 64.80,-43.07 61.93,-41.02 60.00,-39.25 58.52,-37.64 57.04,-36.04 55.07,-34.33 52.14,-32.37 47.23,-40.62">
        <request index="0" response="000" foes="000" cont="0"/>
        <request index="1" response="000" foes="000" cont="0"/>
        <request index="2" response="000" foes="000" cont="0"/>
    </junction>
    <junction id="J16" type="priority" x="1.93" y="117.54" incLanes="-E8_0 -E8_1 -E8_2" intLanes=":J16_0_0 :J16_0_1 :J16_0_2 :J16_0_3" shape="18.83,141.35 9.94,144.98 -6.39,102.70 8.52,96.91 11.56,106.12 12.95,113.19 13.54,119.18 14.16,125.17 15.65,132.20">
        <request index="0" response="0000" foes="0000" cont="0"/>
        <request index="1" response="0000" foes="0000" cont="0"/>
        <request index="2" response="0000" foes="0000" cont="0"/>
        <request index="3" response="0000" foes="0000" cont="0"/>
    </junction>
    <junction id="J18" type="dead_end" x="72.62" y="286.87" incLanes="E3_0 E3_1 E3_2" intLanes="" shape="63.31,291.14 72.04,287.14"/>
    <junction id="J25" type="dead_end" x="-45.00" y="-263.85" incLanes="" intLanes="" shape="-45.00,-263.85 -54.56,-264.68" fringe="outer"/>
    <junction id="J28" type="dead_end" x="71.59" y="286.11" incLanes="" intLanes="" shape="71.59,286.11 80.37,282.23" fringe="outer"/>
    <junction id="J29" type="dead_end" x="-374.74" y="96.16" incLanes="" intLanes="" shape="-374.74,96.16 -373.18,102.37" fringe="outer"/>
    <junction id="J33" type="dead_end" x="265.46" y="-88.23" incLanes="E10.44_0 E10.44_1" intLanes="" shape="266.02,-81.85 265.46,-88.23" fringe="outer"/>
    <junction id="J4" type="priority" x="-64.27" y="-99.33" incLanes="E7_0 E7_1 E7_2" intLanes=":J4_0_0 :J4_0_1 :J4_0_2 :J4_0_3" shape="-65.69,-137.61 -56.13,-136.70 -56.94,-126.73 -57.24,-119.33 -57.16,-113.23 -56.83,-107.12 -56.41,-99.71 -56.02,-89.69 -72.01,-89.25 -71.94,-99.61 -71.19,-107.23 -69.97,-113.47 -68.51,-119.70 -67.01,-127.29">
        <request index="0" response="0000" foes="0000" cont="0"/>
        <request index="1" response="0000" foes="0000" cont="0"/>
        <request index="2" response="0000" foes="0000" cont="0"/>
        <request index="3" response="0000" foes="0000" cont="0"/>
    </junction>
    <junction id="J6" type="dead_end" x="-44.40" y="-263.95" incLanes="E0_0 E0_1 E0_2" intLanes="" shape="-34.83,-263.20 -44.40,-263.95"/>
    <junction id="J7" type="priority" x="-124.12" y="33.78" incLanes="E9_0 E9_1" intLanes=":J7_0_0 :J7_0_1 :J7_0_2" shape="-116.81,30.12 -114.22,39.36 -117.41,40.08 -119.82,40.30 -121.85,40.26 -123.88,40.21 -126.31,40.39 -129.52,41.02 -131.08,34.81">
        <request index="0" response="000" foes="000" cont="0"/>
        <request index="1" response="000" foes="000" cont="0"/>
        <request index="2" response="000" foes="000" cont="0"/>
    </junction>
    <junction id="J9" type="dead_end" x="-374.32" y="95.86" incLanes="E1_0 E1_1" intLanes="" shape="-375.89,89.66 -374.32,95.86"/>
    <junction id="clusterJ42_J43_J44_J45_#4more" type="traffic_light" x="-43.86" y="14.01" incLanes="E2.109_0 E2.109_1 E2.109_2 -E8.75_0 -E8.75_1 -E8.75_2 -E8.75_3 -E8.75_4 E9.147_0 E9.147_1 E9.147_2 E7.95_0 E7.95_1 E7.95_2 E7.95_3 E7.95_4" intLanes=":clusterJ42_J43_J44_J45_#4more_0_0 :clusterJ42_J43_J44_J45_#4more_1_0 :clusterJ42_J43_J44_J45_#4more_1_1 :clusterJ42_J43_J44_J45_#4more_1_2 :clusterJ42_J43_J44_J45_#4more_4_0 :clusterJ42_J43_J44_J45_#4more_5_0 :clusterJ42_J43_J44_J45_#4more_6_0 :clusterJ42_J43_J44_J45_#4more_6_1 :clusterJ42_J43_J44_J45_#4more_8_0 :clusterJ42_J43_J44_J45_#4more_9_0 :clusterJ42_J43_J44_J45_#4more_10_0 :clusterJ42_J43_J44_J45_#4more_11_0 :clusterJ42_J43_J44_J45_#4more_11_1 :clusterJ42_J43_J44_J45_#4more_11_2 :clusterJ42_J43_J44_J45_#4more_14_0 :clusterJ42_J43_J44_J45_#4more_15_0 :clusterJ42_J43_J44_J45_#4more_16_0 :clusterJ42_J43_J44_J45_#4more_16_1 :clusterJ42_J43_J44_J45_#4more_18_0 :clusterJ42_J43_J44_J45_#4more_19_0" shape="-23.59,-3.11 -13.79,16.95 -16.15,18.44 -17.84,20.28 -18.86,22.48 -19.22,25.03 -18.91,27.93 -17.93,31.18 -48.68,44.19 -51.70,38.01 -54.95,33.18 -58.44,29.69 -62.16,27.53 -66.13,26.72 -70.33,27.24 -75.22,10.96 -73.00,9.91 -71.21,8.22 -69.87,5.90 -68.96,2.94 -68.50,-0.65 -68.48,-4.87 -33.69,-10.68 -32.89,-7.38 -31.74,-4.89 -30.24,-3.22 -28.37,-2.37 -26.16,-2.33">
        <request index="0"  response="00000000000011000000" foes="00000000000011000000" cont="0"/>
        <request index="1"  response="11111000001111000000" foes="11111100001111000000" cont="0"/>
        <request index="2"  response="11111000001111001000" foes="11111100001111001000" cont="0"/>
        <request index="3"  response="11111000001111000000" foes="11111100001111000100" cont="0"/>
        <request index="4"  response="11110011101111000000" foes="11110011101111000000" cont="0"/>
        <request index="5"  response="00000000000000000000" foes="00000011100000000000" cont="0"/>
        <request index="6"  response="00000000000000000000" foes="01000111100000011111" cont="0"/>
        <request index="7"  response="00000000000000000000" foes="01000111100000011111" cont="0"/>
        <request index="8"  response="10110000001000000000" foes="10110111101000011110" cont="0"/>
        <request index="9"  response="00000000000000000000" foes="01000111100100011110" cont="0"/>
        <request index="10" response="00110000000000000000" foes="00110000000000000000" cont="0"/>
        <request index="11" response="11110000001111100000" foes="11110000001111110000" cont="0"/>
        <request index="12" response="11110000001111100000" foes="11110000001111110000" cont="0"/>
        <request index="13" response="11110000001111100000" foes="11110000001111110000" cont="0"/>
        <request index="14" response="11110000001111001110" foes="11110000001111001110" cont="0"/>
        <request index="15" response="00000000000000000000" foes="00000000000000001110" cont="0"/>
        <request index="16" response="00000000000000000000" foes="00000111110100011110" cont="0"/>
        <request index="17" response="00000000000000000000" foes="00000111110100011110" cont="0"/>
        <request index="18" response="10000000001011000000" foes="10000111101011011110" cont="0"/>
        <request index="19" response="00000000000000000000" foes="01000111100100011110" cont="0"/>
    </junction>

    <connection from="-E8" to="-E8.75" fromLane="0" toLane="0" via=":J16_0_0" dir="s" state="M"/>
    <connection from="-E8" to="-E8.75" fromLane="1" toLane="1" via=":J16_0_1" dir="s" state="M"/>
    <connection from="-E8" to="-E8.75" fromLane="1" toLane="2" via=":J16_0_2" dir="s" state="M"/>
    <connection from="-E8" to="-E8.75" fromLane="2" toLane="4" via=":J16_0_3" dir="s" state="M"/>
    <connection from="-E8.75" to="E10" fromLane="0" toLane="0" via=":clusterJ42_J43_J44_J45_#4more_5_0" tl="clusterJ42_J43_J44_J45_#4more" linkIndex="5" dir="l" state="O"/>
    <connection from="-E8.75" to="E0" fromLane="0" toLane="0" via=":clusterJ42_J43_J44_J45_#4more_6_0" tl="clusterJ42_J43_J44_J45_#4more" linkIndex="6" dir="s" state="O"/>
    <connection from="-E8.75" to="E0" fromLane="1" toLane="1" via=":clusterJ42_J43_J44_J45_#4more_6_1" tl="clusterJ42_J43_J44_J45_#4more" linkIndex="7" dir="s" state="O"/>
    <connection from="-E8.75" to="E1" fromLane="2" toLane="1" via=":clusterJ42_J43_J44_J45_#4more_8_0" tl="clusterJ42_J43_J44_J45_#4more" linkIndex="8" dir="r" state="o"/>
    <connection from="-E8.75" to="E0" fromLane="4" toLane="2" via=":clusterJ42_J43_J44_J45_#4more_9_0" tl="clusterJ42_J43_J44_J45_#4more" linkIndex="9" dir="s" state="O"/>
    <connection from="E10" to="E10.44" fromLane="0" toLane="0" via=":J10_0_0" dir="s" state="m"/>
    <connection from="E10" to="E10.44" fromLane="1" toLane="0" via=":J10_0_1" dir="s" state="M"/>
    <connection from="E10" to="E10.44" fromLane="2" toLane="1" via=":J10_0_2" dir="s" state="M"/>
    <connection from="E2" to="E2.109" fromLane="0" toLane="0" via=":J13_0_0" dir="s" state="M"/>
    <connection from="E2" to="E2.109" fromLane="1" toLane="1" via=":J13_0_1" dir="s" state="M"/>
    <connection from="E2" to="E2.109" fromLane="1" toLane="2" via=":J13_0_2" dir="s" state="M"/>
    <connection from="E2.109" to="E0" fromLane="0" toLane="0" via=":clusterJ42_J43_J44_J45_#4more_0_0" tl="clusterJ42_J43_J44_J45_#4more" linkIndex="0" dir="l" state="o"/>
    <connection from="E2.109" to="E1" fromLane="0" toLane="0" via=":clusterJ42_J43_J44_J45_#4more_1_0" tl="clusterJ42_J43_J44_J45_#4more" linkIndex="1" dir="s" state="o"/>
    <connection from="E2.109" to="E1" fromLane="1" toLane="1" via=":clusterJ42_J43_J44_J45_#4more_1_1" tl="clusterJ42_J43_J44_J45_#4more" linkIndex="2" dir="s" state="o"/>
    <connection from="E2.109" to="E1" fromLane="2" toLane="1" via=":clusterJ42_J43_J44_J45_#4more_1_2" tl="clusterJ42_J43_J44_J45_#4more" linkIndex="3" dir="s" state="o"/>
    <connection from="E2.109" to="E3" fromLane="2" toLane="1" via=":clusterJ42_J43_J44_J45_#4more_4_0" tl="clusterJ42_J43_J44_J45_#4more" linkIndex="4" dir="r" state="o"/>
    <connection from="E7" to="E7.95" fromLane="0" toLane="0" via=":J4_0_0" dir="s" state="M"/>
    <connection from="E7" to="E7.95" fromLane="1" toLane="1" via=":J4_0_1" dir="s" state="M"/>
    <connection from="E7" to="E7.95" fromLane="1" toLane="2" via=":J4_0_2" dir="s" state="M"/>
    <connection from="E7" to="E7.95" fromLane="2" toLane="4" via=":J4_0_3" dir="s" state="M"/>
    <connection from="E7.95" to="E1" fromLane="0" toLane="0" via=":clusterJ42_J43_J44_J45_#4more_15_0" tl="clusterJ42_J43_J44_J45_#4more" linkIndex="15" dir="l" state="O"/>
    <connection from="E7.95" to="E3" fromLane="0" toLane="0" via=":clusterJ42_J43_J44_J45_#4more_16_0" tl="clusterJ42_J43_J44_J45_#4more" linkIndex="16" dir="s" state="O"/>
    <connection from="E7.95" to="E3" fromLane="1" toLane="1" via=":clusterJ42_J43_J44_J45_#4more_16_1" tl="clusterJ42_J43_J44_J45_#4more" linkIndex="17" dir="s" state="O"/>
    <connection from="E7.95" to="E10" fromLane="2" toLane="2" via=":clusterJ42_J43_J44_J45_#4more_18_0" tl="clusterJ42_J43_J44_J45_#4more" linkIndex="18" dir="r" state="o"/>
    <connection from="E7.95" to="E3" fromLane="4" toLane="2" via=":clusterJ42_J43_J44_J45_#4more_19_0" tl="clusterJ42_J43_J44_J45_#4more" linkIndex="19" dir="s" state="O"/>
    <connection from="E9" to="E9.147" fromLane="0" toLane="0" via=":J7_0_0" dir="s" state="M"/>
    <connection from="E9" to="E9.147" fromLane="1" toLane="1" via=":J7_0_1" dir="s" state="M"/>
    <connection from="E9" to="E9.147" fromLane="1" toLane="2" via=":J7_0_2" dir="s" state="M"/>
    <connection from="E9.147" to="E3" fromLane="0" toLane="0" via=":clusterJ42_J43_J44_J45_#4more_10_0" tl="clusterJ42_J43_J44_J45_#4more" linkIndex="10" dir="l" state="o"/>
    <connection from="E9.147" to="E10" fromLane="0" toLane="0" via=":clusterJ42_J43_J44_J45_#4more_11_0" tl="clusterJ42_J43_J44_J45_#4more" linkIndex="11" dir="s" state="o"/>
    <connection from="E9.147" to="E10" fromLane="1" toLane="1" via=":clusterJ42_J43_J44_J45_#4more_11_1" tl="clusterJ42_J43_J44_J45_#4more" linkIndex="12" dir="s" state="o"/>